**
** Heading +++++++++++++++++++++++++++++++++++++++++++++++++
**
*Heading
Hash: f6OzmRQP, Date: 12/20/2024, Unit system: MM_TON_S_C
**
** Nodes +++++++++++++++++++++++++++++++++++++++++++++++++++
**
*Node
1, 2.00000000E+002, 0.00000000E+000, 0.00000000E+000
2, 2.00000000E+002, 0.00000000E+000, 1.00000000E+001
3, 0.00000000E+000, 0.00000000E+000, 1.00000000E+001
4, 0.00000000E+000, 0.00000000E+000, 0.00000000E+000
5, 2.00000000E+002, 1.00000000E+001, 1.00000000E+001
6, 0.00000000E+000, 1.00000000E+001, 1.00000000E+001
7, 2.00000000E+002, 1.00000000E+001, 1.11022302E-015
8, 0.00000000E+000, 1.00000000E+001, 1.11022302E-015
9, 2.00000000E+002, 0.00000000E+000, 2.50000000E+000
10, 2.00000000E+002, 0.00000000E+000, 5.00000000E+000
11, 2.00000000E+002, 0.00000000E+000, 7.50000000E+000
12, 2.50000000E+000, 0.00000000E+000, 1.00000000E+001
13, 5.00000000E+000, 0.00000000E+000, 1.00000000E+001
14, 7.50000000E+000, 0.00000000E+000, 1.00000000E+001
15, 1.00000000E+001, 0.00000000E+000, 1.00000000E+001
16, 1.25000000E+001, 0.00000000E+000, 1.00000000E+001
17, 1.50000000E+001, 0.00000000E+000, 1.00000000E+001
18, 1.75000000E+001, 0.00000000E+000, 1.00000000E+001
19, 2.00000000E+001, 0.00000000E+000, 1.00000000E+001
20, 2.25000000E+001, 0.00000000E+000, 1.00000000E+001
** ... 2005 like lines cut
**
** Elements ++++++++++++++++++++++++++++++++++++++++++++++++
**
*Element, Type=C3D8, Elset=beam
1, 261, 1138, 1306, 1059, 8, 348, 1297, 340
2, 1138, 1217, 1866, 1306, 348, 347, 1298, 1297
3, 1217, 1296, 1786, 1866, 347, 346, 1299, 1298
4, 1296, 94, 427, 1786, 346, 4, 93, 1299
5, 1059, 1306, 1386, 980, 340, 1297, 1300, 341
6, 1306, 1866, 1946, 1386, 1297, 1298, 1301, 1300
7, 1866, 1786, 1706, 1946, 1298, 1299, 1302, 1301
8, 1786, 427, 506, 1706, 1299, 93, 92, 1302
9, 980, 1386, 1466, 901, 341, 1300, 1303, 342
10, 1386, 1946, 1546, 1466, 1300, 1301, 1304, 1303
11, 1946, 1706, 1626, 1546, 1301, 1302, 1305, 1304
12, 1706, 506, 585, 1626, 1302, 92, 91, 1305
13, 901, 1466, 822, 176, 342, 1303, 255, 6
14, 1466, 1546, 743, 822, 1303, 1304, 256, 255
15, 1546, 1626, 664, 743, 1304, 1305, 257, 256
16, 1626, 585, 12, 664, 1305, 91, 3, 257
17, 262, 1137, 1307, 1058, 261, 1138, 1306, 1059
18, 1137, 1216, 1867, 1307, 1138, 1217, 1866, 1306
19, 1216, 1295, 1787, 1867, 1217, 1296, 1786, 1866
20, 1295, 95, 426, 1787, 1296, 94, 427, 1786
** ... 1260 like lines cut
**
** Node sets +++++++++++++++++++++++++++++++++++++++++++++++
**
*Nset, Nset=Internal_Selection-1_Fixed-1
3, 4, 6, 8, 91, 92, 93, 255, 256, 257, 340, 341, 342, 346, 347, 348, 
1297, 1298, 1299, 1300, 1301, 1302, 1303, 1304, 1305
*Nset, Nset=Internal-1_Internal_Selection-1_Surface_Traction-1
1, 2, 5, 7, 9, 10, 11, 173, 174, 175, 258, 259, 260, 343, 344, 345, 
1385, 1465, 1545, 1625, 1705, 1785, 1865, 1945, 2025
*Nset, Nset=fixed-end
3, 4, 6, 8, 91, 92, 93, 255, 256, 257, 340, 341, 342, 346, 347, 348, 
1297, 1298, 1299, 1300, 1301, 1302, 1303, 1304, 1305
*Nset, Nset=load-end
1, 2, 5, 7, 9, 10, 11, 173, 174, 175, 258, 259, 260, 343, 344, 345, 
1385, 1465, 1545, 1625, 1705, 1785, 1865, 1945, 2025
**
** Element sets ++++++++++++++++++++++++++++++++++++++++++++
**
*Elset, Elset=Internal-1_Internal_Selection-1_Surface_Traction-1_S1
1265, 1266, 1267, 1268, 1269, 1270, 1271, 1272, 1273, 1274, 1275, 1276, 1277, 1278, 1279, 1280
*Elset, Elset=Internal_Selection-1_steel
beam
**
** Surfaces ++++++++++++++++++++++++++++++++++++++++++++++++
**
*Surface, Name=Internal_Selection-1_Surface_Traction-1, Type=Element
Internal-1_Internal_Selection-1_Surface_Traction-1_S1, S1
**
** Physical constants ++++++++++++++++++++++++++++++++++++++
**
**
** Coordinate systems ++++++++++++++++++++++++++++++++++++++
**
**
** Materials +++++++++++++++++++++++++++++++++++++++++++++++
**
*Material, Name=linear-elastic
*Elastic
200000, 0.3
** Name: elastic-plastic: Deactivated
**
** Sections ++++++++++++++++++++++++++++++++++++++++++++++++
**
*Solid section, Elset=Internal_Selection-1_steel, Material=linear-elastic
**
** Pre-tension sections ++++++++++++++++++++++++++++++++++++
**
**
** Constraints +++++++++++++++++++++++++++++++++++++++++++++
**
**
** Surface interactions ++++++++++++++++++++++++++++++++++++
**
**
** Contact pairs +++++++++++++++++++++++++++++++++++++++++++
**
**
** Amplitudes ++++++++++++++++++++++++++++++++++++++++++++++
**
**
** Initial conditions ++++++++++++++++++++++++++++++++++++++
**
**
** Steps +++++++++++++++++++++++++++++++++++++++++++++++++++
**
**
** static ++++++++++++++++++++++++++++++++++++++++++++++++++
**
*Step
*Static, Solver=Pardiso
**
** Controls ++++++++++++++++++++++++++++++++++++++++++++++++
**
**
** Output frequency ++++++++++++++++++++++++++++++++++++++++
**
*Output, Frequency=1
**
** Boundary conditions +++++++++++++++++++++++++++++++++++++
**
*Boundary, op=New
** Name: fixed
*Boundary
fixed-end, 1, 6, 0
**
** Loads +++++++++++++++++++++++++++++++++++++++++++++++++++
**
*Cload, op=New
*Dload, op=New
** Name: load
*Cload
7, 2, -4.4375
343, 2, -8.875
1385, 2, -17.75
260, 2, -8.875
344, 2, -8.875
1945, 2, -17.75
345, 2, -8.875
1865, 2, -17.75
1, 2, -4.4375
9, 2, -8.875
1465, 2, -17.75
259, 2, -8.875
2025, 2, -17.75
1785, 2, -17.75
10, 2, -8.875
1545, 2, -17.75
258, 2, -8.875
1625, 2, -17.75
1705, 2, -17.75
11, 2, -8.875
** ... 5 like lines cut
**
** Defined fields ++++++++++++++++++++++++++++++++++++++++++
**
**
** History outputs +++++++++++++++++++++++++++++++++++++++++
**
**
** Field outputs +++++++++++++++++++++++++++++++++++++++++++
**
*Node file
RF, U
*El file
S, E, NOE
**
** End step ++++++++++++++++++++++++++++++++++++++++++++++++
**
*End step
**
** modal +++++++++++++++++++++++++++++++++++++++++++++++++++
**
** Name: modal: Deactivated
** Name: CaeModel.FrequencyStep: Deactivated
**
** Boundary conditions +++++++++++++++++++++++++++++++++++++
**
** Name: Fixed-1: Deactivated
**
** Loads +++++++++++++++++++++++++++++++++++++++++++++++++++
**
**
** Defined fields ++++++++++++++++++++++++++++++++++++++++++
**
**
** History outputs +++++++++++++++++++++++++++++++++++++++++
**
**
** Field outputs +++++++++++++++++++++++++++++++++++++++++++
**
** Name: NF-Output-1: Deactivated
** Name: EF-Output-1: Deactivated
**
** End step ++++++++++++++++++++++++++++++++++++++++++++++++
**
** Name: modal: Deactivated
